risk_day/LVTest_full_model/LVTest_VLL_Node.Txt

LINE-LINE VOLTAGES BY BUS & NODE

Bus       Node    VLN (kV)   Angle      pu     Base kV 

SOURCEBUS 1-2     11.545 /_   29.9    1.0495    11.000
   -      2-3     11.543 /_  -90.1    1.0494    11.000
   -      3-1     11.543 /_  150.0    1.0494    11.000
1 ....... 1-2     0.4361 /_   -0.2    1.0483     0.416
   -      2-3    0.43612 /_ -120.2    1.0484     0.416
   -      3-1    0.43586 /_  119.8    1.0477     0.416
2 ....... 1-2    0.43603 /_   -0.2    1.0481     0.416
   -      2-3    0.43604 /_ -120.2    1.0482     0.416
   -      3-1    0.43578 /_  119.8    1.0475     0.416
3 ....... 1-2    0.43602 /_   -0.2    1.0481     0.416
   -      2-3    0.43603 /_ -120.2    1.0482     0.416
   -      3-1    0.43577 /_  119.8    1.0475     0.416
4 ....... 1-2    0.43602 /_   -0.2    1.0481     0.416
   -      2-3    0.43603 /_ -120.2    1.0481     0.416
   -      3-1    0.43576 /_  119.8    1.0475     0.416
5 ....... 1-2    0.43601 /_   -0.2    1.0481     0.416
   -      2-3    0.43602 /_ -120.2    1.0481     0.416
   -      3-1    0.43576 /_  119.8    1.0475     0.416
6 ....... 1-2      0.436 /_   -0.2    1.0481     0.416
   -      2-3    0.43601 /_ -120.2    1.0481     0.416
   -      3-1    0.43575 /_  119.8    1.0475     0.416
7 ....... 1-2    0.43539 /_   -0.2    1.0466     0.416
   -      2-3    0.43529 /_ -120.2    1.0464     0.416
   -      3-1    0.43504 /_  119.8    1.0458     0.416
8 ....... 1-2    0.43536 /_   -0.2    1.0465     0.416
   -      2-3    0.43526 /_ -120.2    1.0463     0.416
   -      3-1    0.43501 /_  119.8    1.0457     0.416
9 ....... 1-2    0.43533 /_   -0.2    1.0465     0.416
   -      2-3    0.43523 /_ -120.2    1.0462     0.416
   -      3-1    0.43499 /_  119.8    1.0456     0.416
10 ...... 1-2    0.43531 /_   -0.2    1.0464     0.416
   -      2-3    0.43521 /_ -120.2    1.0462     0.416
   -      3-1    0.43496 /_  119.8    1.0456     0.416
11 ...... 1-2     0.4353 /_   -0.2    1.0464     0.416
   -      2-3    0.43519 /_ -120.2    1.0461     0.416
   -      3-1    0.43495 /_  119.8    1.0455     0.416
12 ...... 1-2    0.43529 /_   -0.2    1.0464     0.416
   -      2-3    0.43517 /_ -120.2    1.0461     0.416
   -      3-1    0.43493 /_  119.8    1.0455     0.416
13 ...... 1-2    0.43528 /_   -0.2    1.0463     0.416
   -      2-3    0.43516 /_ -120.2    1.0461     0.416
   -      3-1    0.43492 /_  119.8    1.0455     0.416
14 ...... 1-2    0.43526 /_   -0.2    1.0463     0.416
   -      2-3    0.43514 /_ -120.2     1.046     0.416
   -      3-1    0.43489 /_  119.8    1.0454     0.416
15 ...... 1-2    0.43508 /_   -0.2    1.0459     0.416
   -      2-3    0.43493 /_ -120.2    1.0455     0.416
   -      3-1    0.43469 /_  119.8    1.0449     0.416
16 ...... 1-2    0.43508 /_   -0.2    1.0459     0.416
   -      2-3    0.43493 /_ -120.2    1.0455     0.416
   -      3-1    0.43469 /_  119.8    1.0449     0.416
17 ...... 1-2    0.43487 /_   -0.2    1.0454     0.416
   -      2-3    0.43468 /_ -120.2    1.0449     0.416
   -      3-1    0.43445 /_  119.8    1.0444     0.416
18 ...... 1-2    0.43508 /_   -0.2    1.0459     0.416
   -      2-3    0.43493 /_ -120.2    1.0455     0.416
   -      3-1    0.43469 /_  119.8    1.0449     0.416
19 ...... 1-2    0.43485 /_   -0.2    1.0453     0.416
   -      2-3    0.43467 /_ -120.2    1.0449     0.416
   -      3-1    0.43443 /_  119.8    1.0443     0.416
20 ...... 1-2    0.43508 /_   -0.2    1.0459     0.416
   -      2-3    0.43493 /_ -120.2    1.0455     0.416
   -      3-1    0.43469 /_  119.8    1.0449     0.416
21 ...... 1-2    0.43484 /_   -0.2    1.0453     0.416
   -      2-3    0.43465 /_ -120.2    1.0448     0.416
   -      3-1    0.43442 /_  119.8    1.0443     0.416
22 ...... 1-2    0.43508 /_   -0.2    1.0459     0.416
   -      2-3    0.43493 /_ -120.2    1.0455     0.416
   -      3-1    0.43469 /_  119.8    1.0449     0.416
23 ...... 1-2    0.43481 /_   -0.2    1.0452     0.416
   -      2-3    0.43462 /_ -120.2    1.0448     0.416
   -      3-1    0.43439 /_  119.8    1.0442     0.416
24 ...... 1-2    0.43508 /_   -0.2    1.0459     0.416
   -      2-3    0.43493 /_ -120.2    1.0455     0.416
   -      3-1    0.43469 /_  119.8    1.0449     0.416
25 ...... 1-2    0.43476 /_   -0.2    1.0451     0.416
   -      2-3    0.43456 /_ -120.2    1.0446     0.416
   -      3-1    0.43433 /_  119.8    1.0441     0.416
26 ...... 1-2    0.43508 /_   -0.2    1.0459     0.416
   -      2-3    0.43493 /_ -120.2    1.0455     0.416
   -      3-1    0.43469 /_  119.8    1.0449     0.416
27 ...... 1-2    0.43475 /_   -0.2    1.0451     0.416
   -      2-3    0.43456 /_ -120.2    1.0446     0.416
   -      3-1    0.43431 /_  119.8     1.044     0.416
28 ...... 1-2    0.43416 /_   -0.1    1.0437     0.416
   -      2-3    0.43385 /_ -120.2    1.0429     0.416
   -      3-1    0.43364 /_  119.9    1.0424     0.416
29 ...... 1-2    0.43508 /_   -0.2    1.0459     0.416
   -      2-3    0.43493 /_ -120.2    1.0455     0.416
   -      3-1    0.43469 /_  119.8    1.0449     0.416
30 ...... 1-2    0.43475 /_   -0.2    1.0451     0.416
   -      2-3    0.43456 /_ -120.2    1.0446     0.416
   -      3-1    0.43431 /_  119.8     1.044     0.416
31 ...... 1-2    0.43475 /_   -0.2    1.0451     0.416
   -      2-3    0.43456 /_ -120.2    1.0446     0.416
   -      3-1    0.43431 /_  119.8     1.044     0.416
32 ...... 1-2      0.434 /_   -0.1    1.0433     0.416
   -      2-3    0.43366 /_ -120.2    1.0424     0.416
   -      3-1    0.43346 /_  119.9     1.042     0.416
33 ...... 1-2    0.43508 /_   -0.2    1.0459     0.416
   -      2-3    0.43493 /_ -120.2    1.0455     0.416
   -      3-1    0.43469 /_  119.8    1.0449     0.416
34 ...... 1-2    0.43475 /_   -0.2    1.0451     0.416
   -      2-3    0.43456 /_ -120.2    1.0446     0.416
   -      3-1    0.43431 /_  119.8     1.044     0.416
35 ...... 1-2    0.43475 /_   -0.2    1.0451     0.416
   -      2-3    0.43456 /_ -120.2    1.0446     0.416
   -      3-1    0.43431 /_  119.8     1.044     0.416
36 ...... 1-2    0.43397 /_   -0.1    1.0432     0.416
   -      2-3    0.43363 /_ -120.2    1.0424     0.416
   -      3-1    0.43346 /_  119.9     1.042     0.416
37 ...... 1-2    0.43354 /_   -0.1    1.0422     0.416
   -      2-3     0.4331 /_ -120.2    1.0411     0.416
   -      3-1    0.43291 /_  119.9    1.0406     0.416
38 ...... 1-2    0.43508 /_   -0.2    1.0459     0.416
   -      2-3    0.43493 /_ -120.2    1.0455     0.416
   -      3-1    0.43469 /_  119.8    1.0449     0.416
39 ...... 1-2    0.43475 /_   -0.2    1.0451     0.416
   -      2-3    0.43456 /_ -120.2    1.0446     0.416
   -      3-1    0.43431 /_  119.8     1.044     0.416
40 ...... 1-2    0.43397 /_   -0.1    1.0432     0.416
   -      2-3    0.43363 /_ -120.2    1.0424     0.416
   -      3-1    0.43346 /_  119.9     1.042     0.416
41 ...... 1-2    0.43396 /_   -0.1    1.0432     0.416
   -      2-3    0.43363 /_ -120.2    1.0424     0.416
   -      3-1    0.43346 /_  119.9     1.042     0.416
42 ...... 1-2    0.43321 /_   -0.1    1.0414     0.416
   -      2-3    0.43271 /_ -120.2    1.0402     0.416
   -      3-1    0.43253 /_  119.9    1.0397     0.416
43 ...... 1-2    0.43354 /_   -0.1    1.0422     0.416
   -      2-3     0.4331 /_ -120.2    1.0411     0.416
   -      3-1    0.43291 /_  119.9    1.0406     0.416
44 ...... 1-2    0.43508 /_   -0.2    1.0459     0.416
   -      2-3    0.43493 /_ -120.2    1.0455     0.416
   -      3-1    0.43469 /_  119.8    1.0449     0.416
45 ...... 1-2    0.43475 /_   -0.2    1.0451     0.416
   -      2-3    0.43456 /_ -120.2    1.0446     0.416
   -      3-1    0.43431 /_  119.8     1.044     0.416
46 ...... 1-2    0.43397 /_   -0.1    1.0432     0.416
   -      2-3    0.43363 /_ -120.2    1.0424     0.416
   -      3-1    0.43346 /_  119.9     1.042     0.416
47 ...... 1-2    0.43394 /_   -0.1    1.0431     0.416
   -      2-3    0.43361 /_ -120.2    1.0423     0.416
   -      3-1    0.43346 /_  119.9     1.042     0.416
48 ...... 1-2    0.43297 /_   -0.1    1.0408     0.416
   -      2-3    0.43242 /_ -120.2    1.0395     0.416
   -      3-1    0.43224 /_  119.9     1.039     0.416
49 ...... 1-2    0.43354 /_   -0.1    1.0422     0.416
   -      2-3     0.4331 /_ -120.2    1.0411     0.416
   -      3-1    0.43291 /_  119.9    1.0406     0.416
50 ...... 1-2    0.43508 /_   -0.2    1.0459     0.416
   -      2-3    0.43493 /_ -120.2    1.0455     0.416
   -      3-1    0.43469 /_  119.8    1.0449     0.416
51 ...... 1-2    0.43475 /_   -0.2    1.0451     0.416
   -      2-3    0.43456 /_ -120.2    1.0446     0.416
   -      3-1    0.43431 /_  119.8     1.044     0.416
52 ...... 1-2    0.43397 /_   -0.1    1.0432     0.416
   -      2-3    0.43363 /_ -120.2    1.0424     0.416
   -      3-1    0.43346 /_  119.9     1.042     0.416
53 ...... 1-2    0.43294 /_   -0.1    1.0407     0.416
   -      2-3    0.43238 /_ -120.2    1.0394     0.416
   -      3-1     0.4322 /_  119.9    1.0389     0.416
54 ...... 1-2    0.43297 /_   -0.1    1.0408     0.416
   -      2-3    0.43242 /_ -120.2    1.0395     0.416
   -      3-1    0.43224 /_  119.9     1.039     0.416
55 ...... 1-2    0.43354 /_   -0.1    1.0422     0.416
   -      2-3     0.4331 /_ -120.2    1.0411     0.416
   -      3-1    0.43291 /_  119.9    1.0406     0.416
56 ...... 1-2    0.43508 /_   -0.2    1.0459     0.416
   -      2-3    0.43493 /_ -120.2    1.0455     0.416
   -      3-1    0.43469 /_  119.8    1.0449     0.416
57 ...... 1-2    0.43475 /_   -0.2    1.0451     0.416
   -      2-3    0.43456 /_ -120.2    1.0446     0.416
   -      3-1    0.43431 /_  119.8     1.044     0.416
58 ...... 1-2    0.43397 /_   -0.1    1.0432     0.416
   -      2-3    0.43363 /_ -120.2    1.0424     0.416
   -      3-1    0.43346 /_  119.9     1.042     0.416
59 ...... 1-2    0.43278 /_   -0.1    1.0403     0.416
   -      2-3    0.43218 /_ -120.2    1.0389     0.416
   -      3-1    0.43201 /_  119.9    1.0385     0.416
60 ...... 1-2    0.43297 /_   -0.1    1.0408     0.416
   -      2-3    0.43242 /_ -120.2    1.0395     0.416
   -      3-1    0.43224 /_  119.9     1.039     0.416
61 ...... 1-2    0.43354 /_   -0.1    1.0422     0.416
   -      2-3     0.4331 /_ -120.2    1.0411     0.416
   -      3-1    0.43291 /_  119.9    1.0406     0.416
62 ...... 1-2    0.43508 /_   -0.2    1.0459     0.416
   -      2-3    0.43493 /_ -120.2    1.0455     0.416
   -      3-1    0.43469 /_  119.8    1.0449     0.416
63 ...... 1-2    0.43474 /_   -0.2    1.0451     0.416
   -      2-3    0.43456 /_ -120.2    1.0446     0.416
   -      3-1    0.43431 /_  119.8     1.044     0.416
64 ...... 1-2    0.43397 /_   -0.1    1.0432     0.416
   -      2-3    0.43363 /_ -120.2    1.0424     0.416
   -      3-1    0.43346 /_  119.9     1.042     0.416
65 ...... 1-2    0.43274 /_   -0.1    1.0402     0.416
   -      2-3    0.43215 /_ -120.2    1.0388     0.416
   -      3-1    0.43197 /_  119.9    1.0384     0.416
66 ...... 1-2    0.43276 /_   -0.1    1.0403     0.416
   -      2-3    0.43218 /_ -120.2    1.0389     0.416
   -      3-1    0.43199 /_  119.9    1.0384     0.416
...
