risk_day/LVTest_full_model/LVTest_VLN.Txt

SYMMETRICAL COMPONENT VOLTAGES BY BUS (for 3-phase buses)

Bus        Mag:   V1 (kV)    p.u.     V2 (kV)   %V2/V1    V0 (kV)    %V0/V1

sourcebus     6.665      1.049  0.0006646   0.009973 4.339E-010 6.51E-009
1            0.2517      1.048  9.713E-005    0.03858 6.973E-005    0.0277
2            0.2517      1.048  9.841E-005     0.0391 7.296E-005   0.02899
3            0.2517      1.048  9.855E-005    0.03916 7.343E-005   0.02918
4            0.2517      1.048  9.869E-005    0.03921 7.389E-005   0.02936
5            0.2517      1.048  9.881E-005    0.03926 7.431E-005   0.02953
6            0.2517      1.048   9.9E-005    0.03933  7.5E-005    0.0298
7            0.2513      1.046  0.0001175    0.04676 0.0001665   0.06625
8            0.2513      1.046  0.0001186    0.04718 0.0001715   0.06824
9            0.2513      1.046  0.0001194    0.04754 0.0001756    0.0699
10           0.2512      1.046  0.0001202    0.04785 0.0001793   0.07137
11           0.2512      1.046  0.0001208    0.04809 0.0001821   0.07247
12           0.2512      1.046  0.0001214    0.04831 0.0001846    0.0735
13           0.2512      1.046  0.0001217    0.04845 0.0001862   0.07413
14           0.2512      1.046  0.0001226    0.04879 0.0001902   0.07572
15           0.2511      1.045  0.0001298    0.05171 0.0002229   0.08876
16           0.2511      1.045  0.0001298    0.05171 0.0002229   0.08876
17            0.251      1.045  0.0001392    0.05548 0.0002631    0.1049
18           0.2511      1.045  0.0001298    0.05171 0.0002229   0.08876
19           0.2509      1.045  0.0001399    0.05575 0.0002659     0.106
20           0.2511      1.045  0.0001298    0.05171 0.0002229   0.08876
21           0.2509      1.045  0.0001407    0.05606 0.0002691    0.1072
22           0.2511      1.045  0.0001298    0.05171 0.0002229   0.08876
23           0.2509      1.045  0.0001419    0.05655 0.0002742    0.1093
24           0.2511      1.045  0.0001298    0.05171 0.0002229   0.08876
25           0.2509      1.045  0.0001442    0.05746 0.0002835     0.113
26           0.2511      1.045  0.0001298    0.05171 0.0002229   0.08876
27           0.2509      1.045  0.0001458    0.05811 0.0002797    0.1115
28           0.2505      1.043  0.0001742    0.06955 0.0004092    0.1633
29           0.2511      1.045  0.0001298    0.05171 0.0002229   0.08876
30           0.2509      1.045  0.0001458    0.05812 0.0002796    0.1114
31           0.2509      1.045  0.0001462    0.05829 0.0002787    0.1111
32           0.2504      1.043  0.0001828    0.07302 0.0004427    0.1768
33           0.2511      1.045  0.0001298    0.05171 0.0002229   0.08876
34           0.2509      1.045  0.0001459    0.05815 0.0002794    0.1114
35           0.2509      1.045  0.0001462    0.05829 0.0002787    0.1111
36           0.2504      1.043   0.000173     0.0691 0.0004387    0.1752
37           0.2501      1.041  0.0002148    0.08588 0.0005521    0.2208
38           0.2511      1.045  0.0001298    0.05171 0.0002229   0.08876
39           0.2509      1.045  0.0001463     0.0583 0.0002787    0.1111
40           0.2504      1.043   0.000173    0.06909 0.0004387    0.1752
41           0.2504      1.043  0.0001701    0.06794 0.0004375    0.1747
42           0.2499       1.04  0.0002374    0.09501 0.0006286    0.2516
43           0.2501      1.041  0.0002148    0.08588 0.0005521    0.2208
44           0.2511      1.045  0.0001298    0.05171 0.0002229   0.08876
45           0.2509      1.045  0.0001463    0.05831 0.0002786     0.111
46           0.2504      1.043   0.000173    0.06909 0.0004386    0.1752
47           0.2504      1.042  0.0001631    0.06516 0.0004348    0.1736
48           0.2497       1.04  0.0002547      0.102 0.0006867     0.275
49           0.2501      1.041  0.0002148    0.08588 0.0005521    0.2208
50           0.2511      1.045  0.0001298    0.05171 0.0002229   0.08876
51           0.2509      1.045  0.0001464    0.05834 0.0002784     0.111
52           0.2504      1.043   0.000173    0.06908 0.0004386    0.1752
53           0.2497       1.04  0.0002572      0.103 0.0006951    0.2784
54           0.2497       1.04  0.0002547      0.102 0.0006867     0.275
55           0.2501      1.041  0.0002148    0.08588 0.0005521    0.2208
56           0.2511      1.045  0.0001298    0.05171 0.0002229   0.08876
57           0.2509      1.045  0.0001464    0.05836 0.0002783    0.1109
58           0.2504      1.043   0.000173    0.06907 0.0004386    0.1752
59           0.2496      1.039  0.0002686     0.1076 0.0007331    0.2937
60           0.2497       1.04  0.0002547      0.102 0.0006867     0.275
61           0.2501      1.041  0.0002148    0.08588 0.0005521    0.2208
62           0.2511      1.045  0.0001298    0.05171 0.0002229   0.08876
63           0.2509      1.045  0.0001467    0.05847 0.0002777    0.1107
64           0.2504      1.043  0.0001729    0.06907 0.0004386    0.1752
65           0.2496      1.039  0.0002709     0.1085 0.0007411    0.2969
66           0.2496      1.039  0.0002683     0.1075 0.0007299    0.2925
67           0.2497       1.04  0.0002547      0.102 0.0006867     0.275
68           0.2501      1.041  0.0002148    0.08588 0.0005521    0.2208
69           0.2511      1.045  0.0001298    0.05171 0.0002229   0.08876
70           0.2509      1.045  0.0001477    0.05889 0.0002757    0.1099
71           0.2504      1.043  0.0001729    0.06906 0.0004386    0.1752
72           0.2493      1.038  0.0002987     0.1198 0.0008358    0.3352
73           0.2496      1.039  0.0002683     0.1075 0.0007298    0.2924
74           0.2496      1.039  0.0002682     0.1075 0.0007286    0.2919
75           0.2497       1.04  0.0002547      0.102 0.0006867     0.275
76           0.2501      1.041  0.0002148    0.08588 0.0005521    0.2208
77           0.2511      1.045  0.0001298    0.05171 0.0002229   0.08876
78           0.2504      1.043  0.0001728    0.06903 0.0004386    0.1752
79           0.2492      1.038  0.0003084     0.1237 0.0008688    0.3486
80           0.2497       1.04  0.0002547      0.102 0.0006867     0.275
81           0.2501      1.041  0.0002148    0.08588 0.0005521    0.2208
82           0.2511      1.045  0.0001298    0.05171 0.0002229   0.08876
83           0.2504      1.043  0.0001725     0.0689 0.0004385    0.1751
84           0.2492      1.038  0.0003106     0.1246  0.000876    0.3515
85           0.2497       1.04  0.0002547      0.102 0.0006867     0.275
86           0.2501      1.041  0.0002148    0.08588 0.0005521    0.2208
87           0.2511      1.045  0.0001298    0.05171 0.0002229   0.08876
88           0.2492      1.038  0.0003149     0.1264 0.0008906    0.3574
89           0.2497       1.04  0.0002547      0.102 0.0006867     0.275
90           0.2501      1.041  0.0002148    0.08588 0.0005521    0.2208
91           0.2511      1.045  0.0001298    0.05171 0.0002229   0.08876
92           0.2492      1.037   0.000319      0.128 0.0009044     0.363
93           0.2501      1.041  0.0002148    0.08588 0.0005521    0.2208
94           0.2511      1.045  0.0001298    0.05171 0.0002229   0.08876
95           0.2491      1.037  0.0003213      0.129 0.0009124    0.3662
96           0.2501      1.041  0.0002148    0.08588 0.0005521    0.2208
97           0.2511      1.045  0.0001298    0.05171 0.0002229   0.08876
98           0.2491      1.037  0.0003229     0.1296 0.0009177    0.3684
99           0.2501      1.041  0.0002148    0.08588 0.0005521    0.2208
100          0.2511      1.045  0.0001298    0.05171 0.0002229   0.08876
101          0.2491      1.037  0.0003251     0.1305  0.000925    0.3713
102          0.2501      1.041  0.0002148    0.08588 0.0005521    0.2208
103          0.2511      1.045  0.0001298    0.05171 0.0002229   0.08876
104          0.2491      1.037   0.000325     0.1305 0.0009249    0.3713
105          0.2491      1.037  0.0003265     0.1311 0.0009306    0.3736
106          0.2501      1.041  0.0002148    0.08588 0.0005521    0.2208
107          0.2491      1.037  0.0003249     0.1304 0.0009248    0.3713
108          0.2491      1.037  0.0003273     0.1314 0.0009338    0.3749
109          0.2501      1.041  0.0002148    0.08588 0.0005521    0.2208
110          0.2491      1.037  0.0003248     0.1304 0.0009247    0.3712
111          0.2488      1.036  0.0003599     0.1447  0.001061    0.4264
112          0.2501      1.041  0.0002148    0.08588 0.0005521    0.2208
113          0.2491      1.037  0.0003247     0.1303 0.0009246    0.3712
114          0.2488      1.036  0.0003633      0.146  0.001074    0.4316
115          0.2501      1.041  0.0002148    0.08588 0.0005521    0.2208
116          0.2491      1.037  0.0003245     0.1303 0.0009244    0.3711
117          0.2488      1.036  0.0003645     0.1465  0.001077    0.4331
118          0.2487      1.036  0.0003637     0.1462  0.001077    0.4331
119          0.2501      1.041  0.0002148    0.08588 0.0005521    0.2208
120          0.2491      1.037  0.0003244     0.1302 0.0009243     0.371
121          0.2488      1.036  0.0003645     0.1465  0.001077    0.4331
122          0.2488      1.036  0.0003651     0.1468  0.001079    0.4338
123          0.2486      1.035  0.0003645     0.1466  0.001084    0.4359
124          0.2501      1.041  0.0002148    0.08588 0.0005521    0.2208
125          0.2491      1.037  0.0003242     0.1301 0.0009241     0.371
126          0.2488      1.036  0.0003645     0.1465  0.001077    0.4331
127          0.2488      1.036  0.0003679     0.1479  0.001088    0.4372
128          0.2486      1.035  0.0003649     0.1468  0.001087    0.4373
129          0.2501      1.041  0.0002148    0.08588 0.0005521    0.2208
130          0.2491      1.037  0.0003239     0.1301 0.0009239    0.3709
131          0.2488      1.036  0.0003645     0.1465  0.001077    0.4331
132          0.2488      1.036  0.0003677     0.1478  0.001087    0.4369
133          0.2488      1.036  0.0003761     0.1512  0.001112    0.4471
134          0.2485      1.035  0.0003651     0.1469  0.001088    0.4377
135          0.2501      1.041  0.0002148    0.08588 0.0005521    0.2208
136          0.2491      1.037  0.0003238       0.13 0.0009237    0.3708
137          0.2488      1.036  0.0003645     0.1465  0.001077    0.4331
138          0.2488      1.036  0.0003676     0.1478  0.001087    0.4369
139          0.2488      1.036  0.0003822     0.1536   0.00113    0.4544
140          0.2485      1.035  0.0003652      0.147  0.001089    0.4382
141          0.2501      1.041  0.0002148    0.08588 0.0005521    0.2208
142          0.2491      1.037  0.0003234     0.1298 0.0009234    0.3707
143          0.2488      1.036  0.0003645     0.1465  0.001077    0.4331
144          0.2488      1.036  0.0003676     0.1478  0.001087    0.4369
145          0.2488      1.036  0.0003862     0.1553  0.001143    0.4593
146          0.2485      1.035  0.0003654      0.147   0.00109    0.4387
147          0.2501      1.041  0.0002148    0.08588 0.0005521    0.2208
148          0.2491      1.037  0.0003219     0.1292  0.000922    0.3701
149          0.2488      1.036  0.0003645     0.1465  0.001077    0.4331
150          0.2488      1.036  0.0003676     0.1478  0.001087    0.4368
151          0.2488      1.036  0.0003903     0.1569  0.001155    0.4643
152          0.2488      1.036  0.0003855      0.155  0.001142    0.4592
153          0.2485      1.035  0.0003656     0.1471  0.001091    0.4392
154          0.2501      1.041  0.0002148    0.08588 0.0005521    0.2208
155          0.2491      1.037  0.0003216     0.1291 0.0009217      0.37
156          0.2488      1.036  0.0003645     0.1465  0.001077    0.4331
157          0.2488      1.036  0.0003676     0.1477  0.001087    0.4368
158          0.2488      1.036  0.0004011     0.1613  0.001188    0.4774
159          0.2488      1.036  0.0003854     0.1549  0.001142    0.4591
160          0.2485      1.035  0.0003656     0.1471  0.001092    0.4394
161          0.2501      1.041  0.0002148    0.08588 0.0005521    0.2208
162          0.2491      1.037  0.0003207     0.1287 0.0009211    0.3698
163          0.2491      1.037  0.0003204     0.1286 0.0009207    0.3696
164          0.2488      1.036  0.0003645     0.1465  0.001077    0.4331
165          0.2488      1.036  0.0003675     0.1477  0.001087    0.4368
166          0.2488      1.036  0.0004049     0.1628  0.001199     0.482
167          0.2488      1.036  0.0003854     0.1549  0.001142    0.4591
168          0.2484      1.034  0.0003659     0.1473  0.001094    0.4403
169          0.2501      1.041  0.0002148    0.08588 0.0005521    0.2208
170          0.2491      1.037  0.0003205     0.1287  0.000921    0.3697
171          0.2491      1.037  0.0003188      0.128 0.0009196    0.3692
172          0.2488      1.036  0.0003645     0.1465  0.001077    0.4331
173          0.2488      1.036  0.0003675     0.1477  0.001087    0.4367
174          0.2488      1.036  0.0004049     0.1628  0.001199     0.482
175          0.2487      1.036  0.0004534     0.1823  0.001252    0.5034
176          0.2488      1.036  0.0003854     0.1549  0.001142    0.4591
177          0.2484      1.034  0.0003661     0.1474  0.001095    0.4408
178          0.2491      1.037  0.0003202     0.1285 0.0009208    0.3697
179          0.2491      1.037  0.0003184     0.1278 0.0009188    0.3689
180          0.2491      1.037  0.0003227     0.1296 0.0009241     0.371
181          0.2488      1.036  0.0003645     0.1465  0.001077    0.4331
182          0.2488      1.036  0.0003675     0.1477  0.001086    0.4367
183          0.2488      1.036  0.0004049     0.1628  0.001199     0.482
184          0.2487      1.035  0.0004586     0.1844  0.001258    0.5058
185          0.2488      1.036  0.0003854     0.1549  0.001142    0.4591
186          0.2484      1.034  0.0003663     0.1474  0.001096    0.4412
187          0.2491      1.037  0.0003166     0.1271 0.0009159    0.3677
188          0.2491      1.037  0.0003389     0.1361 0.0009426    0.3785
189          0.2488      1.036  0.0003645     0.1465  0.001077    0.4331
190          0.2488      1.036  0.0003675     0.1477  0.001086    0.4367
191          0.2488      1.036  0.0004049     0.1628  0.001199     0.482
192          0.2488      1.036  0.0004049     0.1628  0.001199     0.482
193          0.2487      1.035  0.0004637     0.1865  0.001263     0.508
194          0.2488      1.036  0.0003853     0.1549  0.001142    0.4591
195          0.2484      1.034  0.0003664     0.1475  0.001097    0.4416
196          0.2491      1.037  0.0003134     0.1258 0.0009107    0.3657
197          0.2491      1.037  0.0003406     0.1368 0.0009445    0.3793
198          0.2491      1.037  0.0003397     0.1364 0.0009435    0.3788
199          0.2488      1.036  0.0003645     0.1465  0.001077    0.4331
200          0.2488      1.036  0.0003674     0.1477  0.001086    0.4366
...
