risk_day/LVTest_full_model/LVTest_VLN_Node.Txt

LINE-GROUND and LINE-LINE VOLTAGES BY BUS & NODE

Bus       Node    VLN (kV)   Angle      pu     Base kV    Node-Node   VLL (kV)  Angle      pu

SOURCEBUS 1        6.665 /_    0.0    1.0495    11.000        1-2     11.545 /_   29.9    1.0495
   -      2        6.665 /_ -120.1    1.0495    11.000        2-3     11.543 /_  -90.1    1.0494
   -      3        6.664 /_  119.9    1.0493    11.000        3-1     11.543 /_  150.0    1.0494
1 ....... 1      0.25175 /_  -30.2    1.0482     0.416        1-2     0.4361 /_   -0.2    1.0483
   -      2       0.2518 /_ -150.2    1.0484     0.416        2-3    0.43612 /_ -120.2    1.0484
   -      3      0.25167 /_   89.8    1.0478     0.416        3-1    0.43586 /_  119.8    1.0477
2 ....... 1      0.25172 /_  -30.2     1.048     0.416        1-2    0.43603 /_   -0.2    1.0481
   -      2      0.25176 /_ -150.2    1.0482     0.416        2-3    0.43604 /_ -120.2    1.0482
   -      3      0.25161 /_   89.8    1.0476     0.416        3-1    0.43578 /_  119.8    1.0475
3 ....... 1      0.25171 /_  -30.2     1.048     0.416        1-2    0.43602 /_   -0.2    1.0481
   -      2      0.25176 /_ -150.2    1.0482     0.416        2-3    0.43603 /_ -120.2    1.0482
   -      3       0.2516 /_   89.8    1.0476     0.416        3-1    0.43577 /_  119.8    1.0475
4 ....... 1      0.25171 /_  -30.2     1.048     0.416        1-2    0.43602 /_   -0.2    1.0481
   -      2      0.25176 /_ -150.2    1.0482     0.416        2-3    0.43603 /_ -120.2    1.0481
   -      3       0.2516 /_   89.8    1.0475     0.416        3-1    0.43576 /_  119.8    1.0475
5 ....... 1       0.2517 /_  -30.2     1.048     0.416        1-2    0.43601 /_   -0.2    1.0481
   -      2      0.25176 /_ -150.2    1.0482     0.416        2-3    0.43602 /_ -120.2    1.0481
   -      3      0.25159 /_   89.8    1.0475     0.416        3-1    0.43576 /_  119.8    1.0475
6 ....... 1       0.2517 /_  -30.2     1.048     0.416        1-2      0.436 /_   -0.2    1.0481
   -      2      0.25175 /_ -150.2    1.0482     0.416        2-3    0.43601 /_ -120.2    1.0481
   -      3      0.25158 /_   89.8    1.0475     0.416        3-1    0.43575 /_  119.8    1.0475
7 ....... 1      0.25136 /_  -30.2    1.0466     0.416        1-2    0.43539 /_   -0.2    1.0466
   -      2      0.25146 /_ -150.2     1.047     0.416        2-3    0.43529 /_ -120.2    1.0464
   -      3      0.25104 /_   89.8    1.0452     0.416        3-1    0.43504 /_  119.8    1.0458
8 ....... 1      0.25134 /_  -30.2    1.0465     0.416        1-2    0.43536 /_   -0.2    1.0465
   -      2      0.25145 /_ -150.2    1.0469     0.416        2-3    0.43526 /_ -120.2    1.0463
   -      3      0.25101 /_   89.8    1.0451     0.416        3-1    0.43501 /_  119.8    1.0457
9 ....... 1      0.25133 /_  -30.2    1.0464     0.416        1-2    0.43533 /_   -0.2    1.0465
   -      2      0.25144 /_ -150.2    1.0469     0.416        2-3    0.43523 /_ -120.2    1.0462
   -      3      0.25099 /_   89.8     1.045     0.416        3-1    0.43499 /_  119.8    1.0456
10 ...... 1      0.25132 /_  -30.2    1.0464     0.416        1-2    0.43531 /_   -0.2    1.0464
   -      2      0.25143 /_ -150.2    1.0468     0.416        2-3    0.43521 /_ -120.2    1.0462
   -      3      0.25097 /_   89.8     1.045     0.416        3-1    0.43496 /_  119.8    1.0456
11 ...... 1      0.25131 /_  -30.2    1.0464     0.416        1-2     0.4353 /_   -0.2    1.0464
   -      2      0.25142 /_ -150.2    1.0468     0.416        2-3    0.43519 /_ -120.2    1.0461
   -      3      0.25096 /_   89.8    1.0449     0.416        3-1    0.43495 /_  119.8    1.0455
12 ...... 1       0.2513 /_  -30.2    1.0463     0.416        1-2    0.43529 /_   -0.2    1.0464
   -      2      0.25141 /_ -150.2    1.0468     0.416        2-3    0.43517 /_ -120.2    1.0461
   -      3      0.25095 /_   89.8    1.0448     0.416        3-1    0.43493 /_  119.8    1.0455
13 ...... 1       0.2513 /_  -30.2    1.0463     0.416        1-2    0.43528 /_   -0.2    1.0463
   -      2      0.25141 /_ -150.2    1.0468     0.416        2-3    0.43516 /_ -120.2    1.0461
   -      3      0.25094 /_   89.8    1.0448     0.416        3-1    0.43492 /_  119.8    1.0455
14 ...... 1      0.25129 /_  -30.2    1.0463     0.416        1-2    0.43526 /_   -0.2    1.0463
   -      2       0.2514 /_ -150.2    1.0467     0.416        2-3    0.43514 /_ -120.2     1.046
   -      3      0.25092 /_   89.8    1.0447     0.416        3-1    0.43489 /_  119.8    1.0454
15 ...... 1      0.25119 /_  -30.2    1.0459     0.416        1-2    0.43508 /_   -0.2    1.0459
   -      2      0.25132 /_ -150.2    1.0464     0.416        2-3    0.43493 /_ -120.2    1.0455
   -      3      0.25077 /_   89.8    1.0441     0.416        3-1    0.43469 /_  119.8    1.0449
16 ...... 1      0.25119 /_  -30.2    1.0459     0.416        1-2    0.43508 /_   -0.2    1.0459
   -      2      0.25132 /_ -150.2    1.0464     0.416        2-3    0.43493 /_ -120.2    1.0455
   -      3      0.25077 /_   89.8    1.0441     0.416        3-1    0.43469 /_  119.8    1.0449
17 ...... 1      0.25107 /_  -30.2    1.0454     0.416        1-2    0.43487 /_   -0.2    1.0454
   -      2      0.25122 /_ -150.1     1.046     0.416        2-3    0.43468 /_ -120.2    1.0449
   -      3      0.25058 /_   89.8    1.0433     0.416        3-1    0.43445 /_  119.8    1.0444
18 ...... 1      0.25119 /_  -30.2    1.0459     0.416        1-2    0.43508 /_   -0.2    1.0459
   -      2      0.25132 /_ -150.2    1.0464     0.416        2-3    0.43493 /_ -120.2    1.0455
   -      3      0.25077 /_   89.8    1.0441     0.416        3-1    0.43469 /_  119.8    1.0449
19 ...... 1      0.25107 /_  -30.2    1.0453     0.416        1-2    0.43485 /_   -0.2    1.0453
   -      2      0.25121 /_ -150.1    1.0459     0.416        2-3    0.43467 /_ -120.2    1.0449
   -      3      0.25056 /_   89.8    1.0432     0.416        3-1    0.43443 /_  119.8    1.0443
20 ...... 1      0.25119 /_  -30.2    1.0459     0.416        1-2    0.43508 /_   -0.2    1.0459
   -      2      0.25132 /_ -150.2    1.0464     0.416        2-3    0.43493 /_ -120.2    1.0455
   -      3      0.25077 /_   89.8    1.0441     0.416        3-1    0.43469 /_  119.8    1.0449
21 ...... 1      0.25106 /_  -30.2    1.0453     0.416        1-2    0.43484 /_   -0.2    1.0453
   -      2       0.2512 /_ -150.1    1.0459     0.416        2-3    0.43465 /_ -120.2    1.0448
   -      3      0.25055 /_   89.8    1.0432     0.416        3-1    0.43442 /_  119.8    1.0443
22 ...... 1      0.25119 /_  -30.2    1.0459     0.416        1-2    0.43508 /_   -0.2    1.0459
   -      2      0.25132 /_ -150.2    1.0464     0.416        2-3    0.43493 /_ -120.2    1.0455
   -      3      0.25077 /_   89.8    1.0441     0.416        3-1    0.43469 /_  119.8    1.0449
23 ...... 1      0.25104 /_  -30.2    1.0452     0.416        1-2    0.43481 /_   -0.2    1.0452
   -      2      0.25119 /_ -150.1    1.0459     0.416        2-3    0.43462 /_ -120.2    1.0448
   -      3      0.25053 /_   89.8    1.0431     0.416        3-1    0.43439 /_  119.8    1.0442
24 ...... 1      0.25119 /_  -30.2    1.0459     0.416        1-2    0.43508 /_   -0.2    1.0459
   -      2      0.25132 /_ -150.2    1.0464     0.416        2-3    0.43493 /_ -120.2    1.0455
   -      3      0.25077 /_   89.8    1.0441     0.416        3-1    0.43469 /_  119.8    1.0449
25 ...... 1      0.25101 /_  -30.2    1.0451     0.416        1-2    0.43476 /_   -0.2    1.0451
   -      2      0.25117 /_ -150.1    1.0458     0.416        2-3    0.43456 /_ -120.2    1.0446
   -      3      0.25048 /_   89.8    1.0429     0.416        3-1    0.43433 /_  119.8    1.0441
26 ...... 1      0.25119 /_  -30.2    1.0459     0.416        1-2    0.43508 /_   -0.2    1.0459
   -      2      0.25132 /_ -150.2    1.0464     0.416        2-3    0.43493 /_ -120.2    1.0455
   -      3      0.25077 /_   89.8    1.0441     0.416        3-1    0.43469 /_  119.8    1.0449
27 ...... 1        0.251 /_  -30.2    1.0451     0.416        1-2    0.43475 /_   -0.2    1.0451
   -      2      0.25117 /_ -150.1    1.0458     0.416        2-3    0.43456 /_ -120.2    1.0446
   -      3      0.25048 /_   89.8    1.0429     0.416        3-1    0.43431 /_  119.8     1.044
28 ...... 1       0.2507 /_  -30.2    1.0438     0.416        1-2    0.43416 /_   -0.1    1.0437
   -      2      0.25088 /_ -150.1    1.0446     0.416        2-3    0.43385 /_ -120.2    1.0429
   -      3      0.24994 /_   89.8    1.0406     0.416        3-1    0.43364 /_  119.9    1.0424
29 ...... 1      0.25119 /_  -30.2    1.0459     0.416        1-2    0.43508 /_   -0.2    1.0459
   -      2      0.25132 /_ -150.2    1.0464     0.416        2-3    0.43493 /_ -120.2    1.0455
   -      3      0.25077 /_   89.8    1.0441     0.416        3-1    0.43469 /_  119.8    1.0449
30 ...... 1        0.251 /_  -30.2     1.045     0.416        1-2    0.43475 /_   -0.2    1.0451
   -      2      0.25117 /_ -150.1    1.0458     0.416        2-3    0.43456 /_ -120.2    1.0446
   -      3      0.25048 /_   89.8    1.0429     0.416        3-1    0.43431 /_  119.8     1.044
31 ...... 1      0.25099 /_  -30.2     1.045     0.416        1-2    0.43475 /_   -0.2    1.0451
   -      2      0.25117 /_ -150.1    1.0458     0.416        2-3    0.43456 /_ -120.2    1.0446
   -      3      0.25048 /_   89.8    1.0429     0.416        3-1    0.43431 /_  119.8     1.044
32 ...... 1      0.25061 /_  -30.2    1.0434     0.416        1-2      0.434 /_   -0.1    1.0433
   -      2       0.2508 /_ -150.1    1.0442     0.416        2-3    0.43366 /_ -120.2    1.0424
   -      3      0.24979 /_   89.8      1.04     0.416        3-1    0.43346 /_  119.9     1.042
33 ...... 1      0.25119 /_  -30.2    1.0459     0.416        1-2    0.43508 /_   -0.2    1.0459
   -      2      0.25132 /_ -150.2    1.0464     0.416        2-3    0.43493 /_ -120.2    1.0455
   -      3      0.25077 /_   89.8    1.0441     0.416        3-1    0.43469 /_  119.8    1.0449
34 ...... 1        0.251 /_  -30.2     1.045     0.416        1-2    0.43475 /_   -0.2    1.0451
   -      2      0.25117 /_ -150.1    1.0458     0.416        2-3    0.43456 /_ -120.2    1.0446
   -      3      0.25048 /_   89.8    1.0429     0.416        3-1    0.43431 /_  119.8     1.044
35 ...... 1      0.25099 /_  -30.2     1.045     0.416        1-2    0.43475 /_   -0.2    1.0451
   -      2      0.25117 /_ -150.1    1.0458     0.416        2-3    0.43456 /_ -120.2    1.0446
   -      3      0.25048 /_   89.8    1.0429     0.416        3-1    0.43431 /_  119.8     1.044
36 ...... 1      0.25061 /_  -30.2    1.0434     0.416        1-2    0.43397 /_   -0.1    1.0432
   -      2      0.25077 /_ -150.1    1.0441     0.416        2-3    0.43363 /_ -120.2    1.0424
   -      3      0.24979 /_   89.8      1.04     0.416        3-1    0.43346 /_  119.9     1.042
37 ...... 1      0.25035 /_  -30.2    1.0423     0.416        1-2    0.43354 /_   -0.1    1.0422
   -      2       0.2506 /_ -150.1    1.0434     0.416        2-3     0.4331 /_ -120.2    1.0411
   -      3      0.24935 /_   89.9    1.0382     0.416        3-1    0.43291 /_  119.9    1.0406
38 ...... 1      0.25119 /_  -30.2    1.0459     0.416        1-2    0.43508 /_   -0.2    1.0459
   -      2      0.25132 /_ -150.2    1.0464     0.416        2-3    0.43493 /_ -120.2    1.0455
   -      3      0.25077 /_   89.8    1.0441     0.416        3-1    0.43469 /_  119.8    1.0449
39 ...... 1      0.25099 /_  -30.2     1.045     0.416        1-2    0.43475 /_   -0.2    1.0451
   -      2      0.25117 /_ -150.1    1.0458     0.416        2-3    0.43456 /_ -120.2    1.0446
   -      3      0.25048 /_   89.8    1.0429     0.416        3-1    0.43431 /_  119.8     1.044
40 ...... 1      0.25061 /_  -30.2    1.0434     0.416        1-2    0.43397 /_   -0.1    1.0432
   -      2      0.25077 /_ -150.1    1.0441     0.416        2-3    0.43363 /_ -120.2    1.0424
   -      3      0.24979 /_   89.8      1.04     0.416        3-1    0.43346 /_  119.9     1.042
41 ...... 1      0.25061 /_  -30.2    1.0434     0.416        1-2    0.43396 /_   -0.1    1.0432
   -      2      0.25076 /_ -150.1    1.0441     0.416        2-3    0.43363 /_ -120.2    1.0424
   -      3      0.24979 /_   89.8      1.04     0.416        3-1    0.43346 /_  119.9     1.042
42 ...... 1      0.25016 /_  -30.2    1.0416     0.416        1-2    0.43321 /_   -0.1    1.0414
   -      2      0.25046 /_ -150.1    1.0428     0.416        2-3    0.43271 /_ -120.2    1.0402
   -      3      0.24904 /_   89.9    1.0369     0.416        3-1    0.43253 /_  119.9    1.0397
43 ...... 1      0.25035 /_  -30.2    1.0423     0.416        1-2    0.43354 /_   -0.1    1.0422
   -      2       0.2506 /_ -150.1    1.0434     0.416        2-3     0.4331 /_ -120.2    1.0411
   -      3      0.24935 /_   89.9    1.0382     0.416        3-1    0.43291 /_  119.9    1.0406
44 ...... 1      0.25119 /_  -30.2    1.0459     0.416        1-2    0.43508 /_   -0.2    1.0459
   -      2      0.25132 /_ -150.2    1.0464     0.416        2-3    0.43493 /_ -120.2    1.0455
   -      3      0.25077 /_   89.8    1.0441     0.416        3-1    0.43469 /_  119.8    1.0449
45 ...... 1      0.25099 /_  -30.2     1.045     0.416        1-2    0.43475 /_   -0.2    1.0451
   -      2      0.25117 /_ -150.1    1.0458     0.416        2-3    0.43456 /_ -120.2    1.0446
   -      3      0.25048 /_   89.8    1.0429     0.416        3-1    0.43431 /_  119.8     1.044
46 ...... 1      0.25061 /_  -30.2    1.0434     0.416        1-2    0.43397 /_   -0.1    1.0432
   -      2      0.25077 /_ -150.1    1.0441     0.416        2-3    0.43363 /_ -120.2    1.0424
   -      3      0.24979 /_   89.8      1.04     0.416        3-1    0.43346 /_  119.9     1.042
47 ...... 1      0.25061 /_  -30.2    1.0434     0.416        1-2    0.43394 /_   -0.1    1.0431
   -      2      0.25074 /_ -150.1     1.044     0.416        2-3    0.43361 /_ -120.2    1.0423
   -      3      0.24979 /_   89.8      1.04     0.416        3-1    0.43346 /_  119.9     1.042
48 ...... 1      0.25002 /_  -30.2     1.041     0.416        1-2    0.43297 /_   -0.1    1.0408
   -      2      0.25036 /_ -150.1    1.0424     0.416        2-3    0.43242 /_ -120.2    1.0395
   -      3      0.24881 /_   89.9    1.0359     0.416        3-1    0.43224 /_  119.9     1.039
49 ...... 1      0.25035 /_  -30.2    1.0423     0.416        1-2    0.43354 /_   -0.1    1.0422
   -      2       0.2506 /_ -150.1    1.0434     0.416        2-3     0.4331 /_ -120.2    1.0411
   -      3      0.24935 /_   89.9    1.0382     0.416        3-1    0.43291 /_  119.9    1.0406
50 ...... 1      0.25119 /_  -30.2    1.0459     0.416        1-2    0.43508 /_   -0.2    1.0459
   -      2      0.25132 /_ -150.2    1.0464     0.416        2-3    0.43493 /_ -120.2    1.0455
   -      3      0.25077 /_   89.8    1.0441     0.416        3-1    0.43469 /_  119.8    1.0449
51 ...... 1      0.25099 /_  -30.2     1.045     0.416        1-2    0.43475 /_   -0.2    1.0451
   -      2      0.25117 /_ -150.1    1.0458     0.416        2-3    0.43456 /_ -120.2    1.0446
   -      3      0.25048 /_   89.8    1.0429     0.416        3-1    0.43431 /_  119.8     1.044
52 ...... 1      0.25061 /_  -30.2    1.0434     0.416        1-2    0.43397 /_   -0.1    1.0432
   -      2      0.25077 /_ -150.1    1.0441     0.416        2-3    0.43363 /_ -120.2    1.0424
   -      3      0.24979 /_   89.8      1.04     0.416        3-1    0.43346 /_  119.9     1.042
53 ...... 1         0.25 /_  -30.2    1.0409     0.416        1-2    0.43294 /_   -0.1    1.0407
   -      2      0.25034 /_ -150.1    1.0423     0.416        2-3    0.43238 /_ -120.2    1.0394
   -      3      0.24877 /_   89.9    1.0358     0.416        3-1     0.4322 /_  119.9    1.0389
54 ...... 1      0.25002 /_  -30.2     1.041     0.416        1-2    0.43297 /_   -0.1    1.0408
   -      2      0.25036 /_ -150.1    1.0424     0.416        2-3    0.43242 /_ -120.2    1.0395
   -      3      0.24881 /_   89.9    1.0359     0.416        3-1    0.43224 /_  119.9     1.039
55 ...... 1      0.25035 /_  -30.2    1.0423     0.416        1-2    0.43354 /_   -0.1    1.0422
   -      2       0.2506 /_ -150.1    1.0434     0.416        2-3     0.4331 /_ -120.2    1.0411
   -      3      0.24935 /_   89.9    1.0382     0.416        3-1    0.43291 /_  119.9    1.0406
56 ...... 1      0.25119 /_  -30.2    1.0459     0.416        1-2    0.43508 /_   -0.2    1.0459
   -      2      0.25132 /_ -150.2    1.0464     0.416        2-3    0.43493 /_ -120.2    1.0455
   -      3      0.25077 /_   89.8    1.0441     0.416        3-1    0.43469 /_  119.8    1.0449
57 ...... 1      0.25099 /_  -30.2     1.045     0.416        1-2    0.43475 /_   -0.2    1.0451
   -      2      0.25117 /_ -150.1    1.0458     0.416        2-3    0.43456 /_ -120.2    1.0446
   -      3      0.25048 /_   89.8    1.0429     0.416        3-1    0.43431 /_  119.8     1.044
58 ...... 1      0.25061 /_  -30.2    1.0434     0.416        1-2    0.43397 /_   -0.1    1.0432
   -      2      0.25077 /_ -150.1    1.0441     0.416        2-3    0.43363 /_ -120.2    1.0424
   -      3      0.24979 /_   89.8      1.04     0.416        3-1    0.43346 /_  119.9     1.042
59 ...... 1      0.24991 /_  -30.2    1.0405     0.416        1-2    0.43278 /_   -0.1    1.0403
   -      2      0.25027 /_ -150.1     1.042     0.416        2-3    0.43218 /_ -120.2    1.0389
   -      3      0.24862 /_   89.9    1.0352     0.416        3-1    0.43201 /_  119.9    1.0385
60 ...... 1      0.25002 /_  -30.2     1.041     0.416        1-2    0.43297 /_   -0.1    1.0408
   -      2      0.25036 /_ -150.1    1.0424     0.416        2-3    0.43242 /_ -120.2    1.0395
   -      3      0.24881 /_   89.9    1.0359     0.416        3-1    0.43224 /_  119.9     1.039
61 ...... 1      0.25035 /_  -30.2    1.0423     0.416        1-2    0.43354 /_   -0.1    1.0422
   -      2       0.2506 /_ -150.1    1.0434     0.416        2-3     0.4331 /_ -120.2    1.0411
   -      3      0.24935 /_   89.9    1.0382     0.416        3-1    0.43291 /_  119.9    1.0406
62 ...... 1      0.25119 /_  -30.2    1.0459     0.416        1-2    0.43508 /_   -0.2    1.0459
   -      2      0.25132 /_ -150.2    1.0464     0.416        2-3    0.43493 /_ -120.2    1.0455
   -      3      0.25077 /_   89.8    1.0441     0.416        3-1    0.43469 /_  119.8    1.0449
63 ...... 1      0.25099 /_  -30.2     1.045     0.416        1-2    0.43474 /_   -0.2    1.0451
   -      2      0.25117 /_ -150.1    1.0458     0.416        2-3    0.43456 /_ -120.2    1.0446
   -      3      0.25048 /_   89.8    1.0429     0.416        3-1    0.43431 /_  119.8     1.044
64 ...... 1      0.25061 /_  -30.2    1.0434     0.416        1-2    0.43397 /_   -0.1    1.0432
   -      2      0.25077 /_ -150.1    1.0441     0.416        2-3    0.43363 /_ -120.2    1.0424
   -      3      0.24979 /_   89.8      1.04     0.416        3-1    0.43346 /_  119.9     1.042
65 ...... 1      0.24989 /_  -30.2    1.0405     0.416        1-2    0.43274 /_   -0.1    1.0402
   -      2      0.25026 /_ -150.0     1.042     0.416        2-3    0.43215 /_ -120.2    1.0388
   -      3      0.24859 /_   89.9     1.035     0.416        3-1    0.43197 /_  119.9    1.0384
66 ...... 1      0.24989 /_  -30.2    1.0405     0.416        1-2    0.43276 /_   -0.1    1.0403
   -      2      0.25027 /_ -150.1     1.042     0.416        2-3    0.43218 /_ -120.2    1.0389
   -      3      0.24862 /_   89.9    1.0352     0.416        3-1    0.43199 /_  119.9    1.0384
...
